59
VPO4F.id.su.Na.7
V 11.73400 3.27166 0.05357 
V 1.56624 3.30428 5.61595 
V 5.08388 6.59225 0.05357 
V 8.21637 -0.01631 5.61595 
V 9.84890 1.64868 2.75430 
V 3.45134 4.92726 8.31668 
V 3.19878 1.63929 2.75430 
V 10.10146 4.93665 8.31668 
P 13.17863 2.18631 2.92852 
P 0.12162 4.38963 8.49089 
P 6.52851 1.10166 2.92852 
P 6.77174 5.47428 8.49089 
P 9.10703 3.30049 5.58918 
P 4.19322 3.27545 0.02680 
P 2.45690 -0.01252 5.58918 
P 10.84334 6.58846 0.02680 
O 13.01821 3.29699 1.74488 
O 0.28203 3.27895 7.30725 
O 6.36809 -0.00902 1.74488 
O 6.93216 6.58496 7.30725 
O -0.06726 3.07625 4.30366 
O 13.36750 3.49969 9.86603 
O 6.58287 0.21172 4.30366 
O 6.71738 6.36422 9.86603 
O 11.90101 1.18335 3.03757 
O 1.39923 5.39259 8.59994 
O 5.25089 2.10462 3.03757 
O 8.04935 4.47132 8.59994 
O 1.16601 1.24951 2.68448 
O 12.13423 5.32643 8.24686 
O 7.81614 2.03846 2.68448 
O 5.48411 4.53748 8.24686 
O 8.16088 2.03437 5.93178 
O 5.13936 4.54157 0.36940 
O 1.51076 1.25360 5.93178 
O 11.78949 5.32234 0.36940 
O 8.09333 4.53252 5.40571 
O 5.20691 2.04342 -0.15667 
O 1.44321 5.33139 5.40571 
O 11.85703 1.24455 -0.15667 
O 10.17571 3.48735 6.81585 
O 3.12454 3.08859 1.25348 
O 3.52559 6.37656 6.81585 
O 9.77466 0.19938 1.25348 
O 10.05513 3.08018 4.28085 
O 3.24512 3.49576 9.84323 
O 3.40501 0.20779 4.28085 
O 9.89524 6.36815 9.84323 
F 10.28002 3.29519 9.66082 
F 3.02023 3.28075 4.09844 
F 3.62990 6.56872 9.66082 
F 9.67035 0.00722 4.09844 
F 10.05052 3.24092 1.35237 
F 3.24973 3.33502 6.91475 
F 3.40040 0.04705 1.35237 
F 9.89985 6.52889 6.91475 
Tv 0.0000000000 6.5759400000 0.0000000000
Tv 0.0000000000 0.0000000000 11.1247500000
Tv 13.3002450000 0.0000000000 0.0000000000
